Version 4
SHEET 1 2080 680
WIRE 1328 -128 1328 -144
WIRE 608 -80 416 -80
WIRE 304 -64 304 -96
WIRE 1840 -16 1664 -16
WIRE 416 0 416 -80
WIRE 464 0 416 0
WIRE 1328 0 1328 -48
WIRE 1360 0 1328 0
WIRE 1488 0 1440 0
WIRE 608 16 608 -80
WIRE 608 16 528 16
WIRE 720 16 608 16
WIRE 832 16 800 16
WIRE 864 16 832 16
WIRE 976 16 944 16
WIRE 304 32 304 16
WIRE 304 32 80 32
WIRE 464 32 304 32
WIRE 304 48 304 32
WIRE 608 96 416 96
WIRE 1664 96 1664 -16
WIRE 1712 96 1664 96
WIRE 1328 112 1328 0
WIRE 1344 112 1328 112
WIRE 1840 112 1840 -16
WIRE 1840 112 1776 112
WIRE 1904 112 1840 112
WIRE 80 128 80 32
WIRE 96 128 80 128
WIRE 832 128 832 16
WIRE 864 128 832 128
WIRE 1488 128 1488 0
WIRE 1488 128 1408 128
WIRE 1504 128 1488 128
WIRE 1600 128 1584 128
WIRE 1616 128 1600 128
WIRE 1712 128 1696 128
WIRE 304 144 304 128
WIRE 304 144 160 144
WIRE 976 144 976 16
WIRE 976 144 928 144
WIRE 1120 144 976 144
WIRE 1280 144 1184 144
WIRE 1344 144 1280 144
WIRE -112 160 -288 160
WIRE 0 160 -32 160
WIRE 80 160 0 160
WIRE 96 160 80 160
WIRE 864 160 816 160
WIRE 416 176 416 96
WIRE 464 176 416 176
WIRE 1280 176 1280 144
WIRE 608 192 608 96
WIRE 608 192 528 192
WIRE 704 192 608 192
WIRE 816 192 816 160
WIRE 816 192 784 192
WIRE 1600 192 1600 128
WIRE 1696 192 1696 128
WIRE 304 208 304 144
WIRE 464 208 304 208
WIRE -288 224 -288 160
WIRE 0 224 0 160
WIRE 80 240 80 160
WIRE 816 240 816 192
WIRE 1280 288 1280 256
WIRE 1600 288 1600 256
WIRE 1840 288 1840 112
WIRE 1840 288 1600 288
WIRE 0 336 0 304
WIRE 80 336 80 304
WIRE 816 352 816 320
FLAG -128 -48 0
FLAG 16 -48 0
FLAG -128 -128 +5V
FLAG 128 176 -5V
FLAG 16 -128 -5V
FLAG -288 304 0
FLAG 0 336 0
FLAG 128 112 +5V
FLAG 304 -96 0
FLAG 496 48 -5V
FLAG 496 -16 +5V
FLAG 496 224 -5V
FLAG 496 160 +5V
FLAG 896 176 -5V
FLAG 896 112 +5V
FLAG 816 352 0
FLAG 1280 288 0
FLAG 1376 160 -5V
FLAG 1376 96 +5V
FLAG 1328 -144 0
FLAG 1904 112 OUTPUT
FLAG 80 336 0
FLAG 1744 80 +5V
FLAG 1744 144 -5V
FLAG 1696 256 0
SYMBOL voltage -128 -144 R0
WINDOW 123 0 0 Left 0
WINDOW 39 0 0 Left 0
SYMATTR InstName V1
SYMATTR Value 5
SYMBOL voltage 16 -144 R0
WINDOW 123 0 0 Left 0
WINDOW 39 0 0 Left 0
SYMATTR InstName V2
SYMATTR Value -5
SYMBOL voltage -288 208 R0
WINDOW 123 24 124 Left 2
WINDOW 39 0 0 Left 0
SYMATTR InstName V3
SYMATTR Value SINE(0 2 27)
SYMATTR Value2 AC 1
SYMBOL res -16 144 R90
WINDOW 0 0 56 VBottom 2
WINDOW 3 32 56 VTop 2
SYMATTR InstName R1
SYMATTR Value 9k
SYMBOL res -16 208 R0
SYMATTR InstName R2
SYMATTR Value 1k
SYMBOL res 288 32 R0
SYMATTR InstName R3
SYMATTR Value 330
SYMBOL res 288 -80 R0
SYMATTR InstName R4
SYMATTR Value 2k
SYMBOL OpAmps\\AD8032 496 -48 R0
SYMATTR InstName U2
SYMBOL OpAmps\\AD8032 496 128 R0
SYMATTR InstName U3
SYMBOL res 800 176 R90
WINDOW 0 0 56 VBottom 2
WINDOW 3 32 56 VTop 2
SYMATTR InstName R5
SYMATTR Value 1k
SYMBOL res 816 0 R90
WINDOW 0 0 56 VBottom 2
WINDOW 3 32 56 VTop 2
SYMATTR InstName R7
SYMATTR Value 1k
SYMBOL res 848 32 R270
WINDOW 0 32 56 VTop 2
WINDOW 3 0 56 VBottom 2
SYMATTR InstName R8
SYMATTR Value 10k
SYMBOL res 832 336 R180
WINDOW 0 36 76 Left 2
WINDOW 3 36 40 Left 2
SYMATTR InstName R6
SYMATTR Value 10k
SYMBOL cap 1184 128 R90
WINDOW 0 0 32 VBottom 2
WINDOW 3 32 32 VTop 2
SYMATTR InstName C1
SYMATTR Value 4.7µ
SYMBOL res 1264 160 R0
SYMATTR InstName R9
SYMATTR Value 100k
SYMBOL OpAmps\\AD8033 1376 64 R0
SYMATTR InstName U5
SYMBOL res 1312 -144 R0
SYMATTR InstName R10
SYMATTR Value 1k
SYMBOL res 1456 -16 R90
WINDOW 0 0 56 VBottom 2
WINDOW 3 32 56 VTop 2
SYMATTR InstName R11
SYMATTR Value 9k
SYMBOL OpAmps\\AD8033 128 80 R0
SYMATTR InstName U4
SYMBOL OpAmps\\AD8032 896 80 R0
SYMATTR InstName U1
SYMBOL cap 64 240 R0
SYMATTR InstName C2
SYMATTR Value 87n
SYMBOL res 1712 112 R90
WINDOW 0 0 56 VBottom 2
WINDOW 3 32 56 VTop 2
SYMATTR InstName R12
SYMATTR Value 10k
SYMBOL res 1600 112 R90
WINDOW 0 0 56 VBottom 2
WINDOW 3 32 56 VTop 2
SYMATTR InstName R13
SYMATTR Value 10k
SYMBOL cap 1584 192 R0
SYMATTR InstName C3
SYMATTR Value 8n
SYMBOL cap 1680 192 R0
SYMATTR InstName C4
SYMATTR Value 8n
SYMBOL OpAmps\\AD8032 1744 48 R0
SYMATTR InstName U6
TEXT -162 360 Left 2 !.tran 0 500m 0 30u
